*version 9.1 699362505
u 135
HB? 5
DSTM? 2
? 7
@libraries
@analysis
.TRAN 1 0 0 0
+0 0ns
+1 2560ns
@targets
@attributes
@translators
a 0 u 13 0 0 0 hln 100 PSPICE=PSPICE
a 0 u 13 0 0 0 hln 100 XILINX=XILINX
@setup
unconnectedPins 0
connectViaLabel 0
connectViaLocalLabels 0
NoStim4ExtIFPortsWarnings 1
AutoGenStim4ExtIFPorts 1
@index
pageloc 1 0 10794 
@status
n 0 125:09:22:23:11:46;1761189106 e 
s 0 125:09:22:23:13:28;1761189208 e 
*page 1 0 970 720 iA
@ports
port 83 LO 350 90 h
@parts
block 2 blocksym1 350 190 h
a 0 a 0:13 0 0 0 hln 100 PKGREF=HB2
a 0 ap 9 0 0 0 hln 100 REFDES=HB2
*symbol blocksym2
d 
@type p
@attributes
a 0 sp 9 0 0 0 hln 100 REFDES=HB?
a 0 s 0 0 0 0 hln 100 PART=
@views
a 0 u 13 0 0 0 hln 100 DEFAULT=D:\Descargas\Santana, Jesus TEC200 1347 Practica 04\Santana, Jesus TEC200 1347 Practica 04 b.sch
@pins
p 2 2 25 hlb 100 Cin l 0 20 h
a 0 s 0:13 0 0 0 hln 100 ERC=i
a 0 s 0:13 0 0 0 hln 100 FLOAT=n
p 2 2 45 hlb 100 X l 0 40 h
a 0 s 0:13 0 0 0 hln 100 ERC=i
a 0 s 0:13 0 0 0 hln 100 FLOAT=n
p 2 2 65 hlb 100 Y l 0 60 h
a 0 s 0:13 0 0 0 hln 100 ERC=i
a 0 s 0:13 0 0 0 hln 100 FLOAT=n
p 2 48 25 hrb 100 Cout l 50 20 u
a 0 s 0:13 0 0 0 hln 100 ERC=o
a 0 s 0:13 0 0 0 hln 100 FLOAT=n
p 2 48 45 hrb 100 S l 50 40 u
a 0 s 0:13 0 0 0 hln 100 ERC=o
a 0 s 0:13 0 0 0 hln 100 FLOAT=n
@graphics 50 80 0 0 10
r 0 0 0 50 80
*end blocksym
block 3 blocksym1 350 300 h
a 0 a 0:13 0 0 0 hln 100 PKGREF=HB3
a 0 ap 9 0 0 0 hln 100 REFDES=HB3
*symbol blocksym3
d 
@type p
@attributes
a 0 sp 9 0 0 0 hln 100 REFDES=HB?
a 0 s 0 0 0 0 hln 100 PART=
@views
a 0 u 13 0 0 0 hln 100 DEFAULT=D:\Descargas\Santana, Jesus TEC200 1347 Practica 04\Santana, Jesus TEC200 1347 Practica 04 b.sch
@pins
p 2 2 25 hlb 100 Cin l 0 20 h
a 0 s 0:13 0 0 0 hln 100 ERC=i
a 0 s 0:13 0 0 0 hln 100 FLOAT=n
p 2 2 45 hlb 100 X l 0 40 h
a 0 s 0:13 0 0 0 hln 100 ERC=i
a 0 s 0:13 0 0 0 hln 100 FLOAT=n
p 2 2 65 hlb 100 Y l 0 60 h
a 0 s 0:13 0 0 0 hln 100 ERC=i
a 0 s 0:13 0 0 0 hln 100 FLOAT=n
p 2 48 25 hrb 100 Cout l 50 20 u
a 0 s 0:13 0 0 0 hln 100 ERC=o
a 0 s 0:13 0 0 0 hln 100 FLOAT=n
p 2 48 45 hrb 100 S l 50 40 u
a 0 s 0:13 0 0 0 hln 100 ERC=o
a 0 s 0:13 0 0 0 hln 100 FLOAT=n
@graphics 50 80 0 0 10
r 0 0 0 50 80
*end blocksym
block 4 blocksym1 350 410 h
a 0 a 0:13 0 0 0 hln 100 PKGREF=HB4
a 0 ap 9 0 0 0 hln 100 REFDES=HB4
*symbol blocksym4
d 
@type p
@attributes
a 0 sp 9 0 0 0 hln 100 REFDES=HB?
a 0 s 0 0 0 0 hln 100 PART=
@views
a 0 u 13 0 0 0 hln 100 DEFAULT=D:\Descargas\Santana, Jesus TEC200 1347 Practica 04\Santana, Jesus TEC200 1347 Practica 04 b.sch
@pins
p 2 2 25 hlb 100 Cin l 0 20 h
a 0 s 0:13 0 0 0 hln 100 ERC=i
a 0 s 0:13 0 0 0 hln 100 FLOAT=n
p 2 2 45 hlb 100 X l 0 40 h
a 0 s 0:13 0 0 0 hln 100 ERC=i
a 0 s 0:13 0 0 0 hln 100 FLOAT=n
p 2 2 65 hlb 100 Y l 0 60 h
a 0 s 0:13 0 0 0 hln 100 ERC=i
a 0 s 0:13 0 0 0 hln 100 FLOAT=n
p 2 48 25 hrb 100 Cout l 50 20 u
a 0 s 0:13 0 0 0 hln 100 ERC=o
a 0 s 0:13 0 0 0 hln 100 FLOAT=n
p 2 48 45 hrb 100 S l 50 40 u
a 0 s 0:13 0 0 0 hln 100 ERC=o
a 0 s 0:13 0 0 0 hln 100 FLOAT=n
@graphics 50 80 0 0 10
r 0 0 0 50 80
*end blocksym
block 1 blocksym1 350 70 h
a 0 a 0:13 0 0 0 hln 100 PKGREF=HB1
a 0 ap 9 0 0 0 hln 100 REFDES=HB1
*symbol blocksym1
d 
@type p
@attributes
a 0 sp 9 0 0 0 hln 100 REFDES=HB?
a 0 s 0 0 0 0 hln 100 PART=
@views
a 0 u 13 0 0 0 hln 100 DEFAULT=D:\Descargas\Santana, Jesus TEC200 1347 Practica 04\Santana, Jesus TEC200 1347 Practica 04 b.sch
@pins
p 2 2 25 hlb 100 Cin l 0 20 h
a 0 s 0:13 0 0 0 hln 100 ERC=i
a 0 s 0:13 0 0 0 hln 100 FLOAT=n
p 2 2 45 hlb 100 X l 0 40 h
a 0 s 0:13 0 0 0 hln 100 ERC=i
a 0 s 0:13 0 0 0 hln 100 FLOAT=n
p 2 2 65 hlb 100 Y l 0 60 h
a 0 s 0:13 0 0 0 hln 100 ERC=i
a 0 s 0:13 0 0 0 hln 100 FLOAT=n
p 2 48 25 hrb 100 Cout l 50 20 u
a 0 s 0:13 0 0 0 hln 100 ERC=o
a 0 s 0:13 0 0 0 hln 100 FLOAT=n
p 2 48 45 hrb 100 S l 50 40 u
a 0 s 0:13 0 0 0 hln 100 ERC=o
a 0 s 0:13 0 0 0 hln 100 FLOAT=n
@graphics 50 80 0 0 10
r 0 0 0 50 80
*end blocksym
part 9 stim8 110 70 h
a 0 a 0:13 0 0 0 hln 100 PKGREF=DSTM1
a 0 ap 9 0 1 -2 hln 100 REFDES=DSTM1
a 0 u 0 0 0 70 hln 100 TIMESTEP=10us
a 0 u 0 0 0 90 hln 100 COMMAND2=label=bucle
a 0 u 0 0 0 100 hln 100 COMMAND3=1c incr by 00000001
a 0 u 0 0 0 110 hln 100 COMMAND4=2c goto bucle until ge 11111111
part 127 nodeMarker 130 120 h
a 0 s 0 0 0 0 hln 100 PROBEVAR=
a 0 a 0 0 4 22 hlb 100 LABEL=4
part 129 nodeMarker 490 80 h
a 0 s 0 0 0 0 hln 100 PROBEVAR=
a 0 a 0 0 4 22 hlb 100 LABEL=5
part 133 nodeMarker 200 160 h
a 0 s 0 0 0 0 hln 100 PROBEVAR=
a 0 a 0 0 4 22 hlb 100 LABEL=6
@conn
w 35
a 0 up 0:33 0 0 0 hln 100 LVL=
s 400 90 420 90 34
s 420 90 420 160 36
s 420 160 320 160 38
a 0 up 33 0 370 159 hct 100 LVL=
s 320 160 320 210 40
s 320 210 350 210 42
w 45
a 0 up 0:33 0 0 0 hln 100 LVL=
s 400 210 440 210 44
s 440 210 440 280 46
s 440 280 320 280 48
a 0 up 33 0 380 279 hct 100 LVL=
s 320 280 320 320 50
s 320 320 350 320 52
w 55
a 0 up 0:33 0 0 0 hln 100 LVL=
s 400 320 450 320 54
s 450 320 450 390 56
s 450 390 320 390 58
a 0 up 33 0 385 389 hct 100 LVL=
s 320 390 320 430 60
s 320 430 350 430 62
w 11
a 0 sr 0 0 0 0 hln 100 LABEL=A0
a 0 up 0:33 0 0 0 hln 100 LVL=
s 350 110 260 110 10
a 0 sr 3 0 305 108 hcn 100 LABEL=A0
a 0 up 33 0 305 109 hct 100 LVL=
w 14
a 0 sr 0 0 0 0 hln 100 LABEL=B0
a 0 up 0:33 0 0 0 hln 100 LVL=
s 350 130 260 130 13
a 0 sr 3 0 305 128 hcn 100 LABEL=B0
a 0 up 33 0 305 129 hct 100 LVL=
w 17
a 0 sr 0 0 0 0 hln 100 LABEL=A1
a 0 up 0:33 0 0 0 hln 100 LVL=
s 350 230 260 230 16
a 0 sr 3 0 305 228 hcn 100 LABEL=A1
a 0 up 33 0 305 229 hct 100 LVL=
w 20
a 0 sr 0 0 0 0 hln 100 LABEL=B1
a 0 up 0:33 0 0 0 hln 100 LVL=
s 350 250 260 250 19
a 0 sr 3 0 305 248 hcn 100 LABEL=B1
a 0 up 33 0 305 249 hct 100 LVL=
w 23
a 0 sr 0 0 0 0 hln 100 LABEL=A2
a 0 up 0:33 0 0 0 hln 100 LVL=
s 350 340 260 340 22
a 0 sr 3 0 305 338 hcn 100 LABEL=A2
a 0 up 33 0 305 339 hct 100 LVL=
w 26
a 0 sr 0 0 0 0 hln 100 LABEL=B2
a 0 up 0:33 0 0 0 hln 100 LVL=
s 350 360 260 360 25
a 0 sr 3 0 305 358 hcn 100 LABEL=B2
a 0 up 33 0 305 359 hct 100 LVL=
w 29
a 0 sr 0 0 0 0 hln 100 LABEL=A3
a 0 up 0:33 0 0 0 hln 100 LVL=
s 350 450 260 450 28
a 0 sr 3 0 305 448 hcn 100 LABEL=A3
a 0 up 33 0 305 449 hct 100 LVL=
w 32
a 0 sr 0 0 0 0 hln 100 LABEL=B3
a 0 up 0:33 0 0 0 hln 100 LVL=
s 350 470 260 470 31
a 0 sr 3 0 305 468 hcn 100 LABEL=B3
a 0 up 33 0 305 469 hct 100 LVL=
w 98
a 0 sr 0 0 0 0 hln 100 LABEL=A2
a 0 up 0:33 0 0 0 hln 100 LVL=
s 140 70 140 120 97
a 0 sr 3 0 142 95 hln 100 LABEL=A2
a 0 up 33 0 142 96 hlt 100 LVL=
w 102
a 0 sr 0 0 0 0 hln 100 LABEL=A1
a 0 up 0:33 0 0 0 hln 100 LVL=
s 160 70 160 120 101
a 0 sr 3 0 162 95 hln 100 LABEL=A1
a 0 up 33 0 162 96 hlt 100 LVL=
w 106
a 0 sr 0 0 0 0 hln 100 LABEL=A0
a 0 up 0:33 0 0 0 hln 100 LVL=
s 180 70 180 120 109
a 0 sr 3 0 182 95 hln 100 LABEL=A0
a 0 up 33 0 182 96 hlt 100 LVL=
s 170 70 180 70 105
w 69
a 0 sr 0 0 0 0 hln 100 LABEL=S0
a 0 up 0:33 0 0 0 hln 100 LVL=
s 400 110 490 110 68
a 0 sr 3 0 445 108 hcn 100 LABEL=S0
a 0 up 33 0 445 109 hct 100 LVL=
w 72
a 0 sr 0 0 0 0 hln 100 LABEL=S1
a 0 up 0:33 0 0 0 hln 100 LVL=
s 400 230 490 230 71
a 0 sr 3 0 445 228 hcn 100 LABEL=S1
a 0 up 33 0 445 229 hct 100 LVL=
w 75
a 0 sr 0 0 0 0 hln 100 LABEL=S2
a 0 up 0:33 0 0 0 hln 100 LVL=
s 400 340 490 340 74
a 0 sr 3 0 445 338 hcn 100 LABEL=S2
a 0 up 33 0 445 339 hct 100 LVL=
w 81
a 0 sr 0 0 0 0 hln 100 LABEL=Cout
a 0 up 0:33 0 0 0 hln 100 LVL=
s 400 430 490 430 80
a 0 sr 3 0 445 428 hcn 100 LABEL=Cout
a 0 up 33 0 445 429 hct 100 LVL=
w 78
a 0 sr 0 0 0 0 hln 100 LABEL=S3
a 0 up 0:33 0 0 0 hln 100 LVL=
s 400 450 490 450 77
a 0 sr 3 0 445 448 hcn 100 LABEL=S3
a 0 up 33 0 445 449 hct 100 LVL=
w 96
a 0 sr 0 0 0 0 hln 100 LABEL=A3
a 0 up 0:33 0 0 0 hln 100 LVL=
s 120 70 120 120 95
a 0 sr 3 0 122 95 hln 100 LABEL=A3
a 0 up 33 0 122 96 hlt 100 LVL=
w 116
a 0 sr 0 0 0 0 hln 100 LABEL=B2
a 0 up 0:33 0 0 0 hln 100 LVL=
s 210 70 210 160 115
a 0 sr 3 0 212 115 hln 100 LABEL=B2
a 0 up 33 0 212 116 hlt 100 LVL=
w 120
a 0 sr 0 0 0 0 hln 100 LABEL=B1
a 0 up 0:33 0 0 0 hln 100 LVL=
s 230 70 230 160 119
a 0 sr 3 0 232 115 hln 100 LABEL=B1
a 0 up 33 0 232 116 hlt 100 LVL=
w 124
a 0 sr 0 0 0 0 hln 100 LABEL=B0
a 0 up 0:33 0 0 0 hln 100 LVL=
s 250 70 250 160 123
a 0 sr 3 0 252 115 hln 100 LABEL=B0
a 0 up 33 0 252 116 hlt 100 LVL=
w 112
a 0 sr 0 0 0 0 hln 100 LABEL=B3
a 0 up 0:33 0 0 0 hln 100 LVL=
s 190 70 190 160 111
a 0 sr 3 0 192 115 hln 100 LABEL=B3
a 0 up 33 0 192 116 hlt 100 LVL=
b 89
a 0 sr 0 0 0 0 hln 100 LABEL=A3,A2,A1,A0
s 140 120 160 120 99
a 0 sr 3 0 150 118 hcn 100 LABEL=A3,A2,A1,A0
s 120 120 130 120 88
s 160 120 180 120 103
s 130 120 140 120 128
b 65
a 0 sr 0 0 0 0 hln 100 LABEL=Cout,S3,S2,S1,S0
s 560 50 490 50 87
a 0 sr 3 0 525 48 hcn 100 LABEL=Cout,S3,S2,S1,S0
s 490 50 490 80 66
s 490 110 490 230 70
s 490 230 490 340 73
s 490 340 490 430 76
s 490 450 490 500 79
s 490 430 490 450 82
s 490 80 490 110 130
b 6
a 0 sr 0 0 0 0 hln 100 LABEL=A3,A2,A1,A0,B3,B2,B1,B0
s 160 70 170 70 104
a 0 sr 3 0 160 68 hcn 100 LABEL=A3,A2,A1,A0,B3,B2,B1,B0
s 260 70 260 110 7
s 260 110 260 130 12
s 260 130 260 230 15
s 260 230 260 250 18
s 260 250 260 340 21
s 260 340 260 360 24
s 260 360 260 450 27
s 260 450 260 470 30
s 260 470 260 520 33
s 120 70 140 70 5
s 140 70 160 70 100
s 170 70 180 70 107
s 180 70 190 70 108
s 190 70 210 70 114
s 210 70 230 70 118
s 230 70 250 70 122
s 250 70 260 70 125
s 120 70 110 70 131
b 91
a 0 sr 0 0 0 0 hln 100 LABEL=B3,B2,B1,B0
s 210 160 230 160 117
a 0 sr 3 0 215 158 hcn 100 LABEL=B3,B2,B1,B0
s 190 160 200 160 113
s 230 160 250 160 121
s 200 160 210 160 134
@junction
j 350 110
+ p 1 X
+ w 11
j 260 110
+ w 11
+ b 6
 A0
j 350 130
+ p 1 Y
+ w 14
j 260 130
+ w 14
+ b 6
 B0
j 350 230
+ p 2 X
+ w 17
j 260 230
+ w 17
+ b 6
 A1
j 350 250
+ p 2 Y
+ w 20
j 260 250
+ w 20
+ b 6
 B1
j 350 340
+ p 3 X
+ w 23
j 260 340
+ w 23
+ b 6
 A2
j 350 360
+ p 3 Y
+ w 26
j 260 360
+ w 26
+ b 6
 B2
j 350 450
+ p 4 X
+ w 29
j 260 450
+ w 29
+ b 6
 A3
j 350 470
+ p 4 Y
+ w 32
j 260 470
+ w 32
+ b 6
 B3
j 400 90
+ p 1 Cout
+ w 35
j 350 210
+ p 2 Cin
+ w 35
j 400 210
+ p 2 Cout
+ w 45
j 350 320
+ p 3 Cin
+ w 45
j 400 320
+ p 3 Cout
+ w 55
j 350 430
+ p 4 Cin
+ w 55
j 400 110
+ p 1 S
+ w 69
j 490 110
+ w 69
+ b 65
 S0
j 400 230
+ p 2 S
+ w 72
j 490 230
+ w 72
+ b 65
 S1
j 400 340
+ p 3 S
+ w 75
j 490 340
+ w 75
+ b 65
 S2
j 400 450
+ p 4 S
+ w 78
j 490 450
+ w 78
+ b 65
 S3
j 400 430
+ p 4 Cout
+ w 81
j 490 430
+ w 81
+ b 65
 Cout
j 350 90
+ s 83
+ p 1 Cin
j 120 120
+ w 96
+ b 89
 A3
j 120 70
+ w 96
+ b 6
 A3
j 140 120
+ w 98
+ b 89
 A2
j 140 70
+ w 98
+ b 6
 A2
j 160 120
+ w 102
+ b 89
 A1
j 160 70
+ w 102
+ b 6
 A1
j 170 70
+ w 106
+ b 6
 A0
j 180 70
+ w 106
+ b 6
 A0
j 180 120
+ w 106
+ b 89
 A0
j 190 160
+ w 112
+ b 91
 B3
j 190 70
+ w 112
+ b 6
 B3
j 210 160
+ w 116
+ b 91
 B2
j 210 70
+ w 116
+ b 6
 B2
j 230 160
+ w 120
+ b 91
 B1
j 230 70
+ w 120
+ b 6
 B1
j 250 160
+ w 124
+ b 91
 B0
j 250 70
+ w 124
+ b 6
 B0
j 130 120
+ p 127 pin1
+ b 89
j 490 80
+ p 129 pin1
+ b 65
j 110 70
+ P 9 pin[0-7]
 pin[0]
 pin[1]
 pin[2]
 pin[3]
 pin[4]
 pin[5]
 pin[6]
 pin[7]
+ b 6
 A3
 A2
 A1
 A0
 B3
 B2
 B1
 B0
j 200 160
+ p 133 pin1
+ b 91
@attributes
a 0 s 0:13 0 0 0 hln 100 PAGETITLE=
a 0 s 0:13 0 0 0 hln 100 PAGENO=1
a 0 s 0:13 0 0 0 hln 100 PAGESIZE=A
a 0 s 0:13 0 0 0 hln 100 PAGECOUNT=1
@graphics
